lig
 OpenBabel05102316273D

 37 38  0  0  0  0  0  0  0  0999 V2000
   -5.0830   18.1400   71.2770 N   0  0  0  0  0  0  0  0  0  0  0  0
   -6.1920   19.6370   69.4400 C   0  0  0  0  0  0  0  0  0  0  0  0
   -5.5660   18.7910   70.4530 C   0  0  0  0  0  0  0  0  0  0  0  0
   -7.1810   18.9420   68.5300 C   0  0  0  0  0  0  0  0  0  0  0  0
   -8.5940   18.9840   68.6540 C   0  0  0  0  0  0  0  0  0  0  0  0
   -9.4080   18.3360   67.6970 C   0  0  0  0  0  0  0  0  0  0  0  0
   -8.8170   17.6200   66.6370 C   0  0  0  0  0  0  0  0  0  0  0  0
   -7.4100   17.5440   66.5950 C   0  0  0  0  0  0  0  0  0  0  0  0
   -6.6230   18.2110   67.4940 C   0  0  0  0  0  0  0  0  0  0  0  0
   -9.5910   17.0440   65.6570 O   0  0  0  0  0  0  0  0  0  0  0  0
  -10.4990   16.0110   65.9100 C   0  0  2  0  0  0  0  0  0  0  0  0
   -9.7970   14.9680   66.5490 O   0  0  0  0  0  0  0  0  0  0  0  0
  -10.5460   13.8600   67.0070 C   0  0  2  0  0  0  0  0  0  0  0  0
  -11.9510   13.6590   66.3710 C   0  0  1  0  0  0  0  0  0  0  0  0
  -10.5860   13.8090   68.5580 C   0  0  0  0  0  0  0  0  0  0  0  0
  -12.2370   14.4720   65.0650 C   0  0  1  0  0  0  0  0  0  0  0  0
  -11.0920   15.4210   64.6290 C   0  0  1  0  0  0  0  0  0  0  0  0
  -12.1740   12.2800   66.2010 O   0  0  0  0  0  0  0  0  0  0  0  0
  -12.4060   12.1220   65.2510 H   0  0  0  0  0  0  0  0  0  0  0  0
  -12.6280   13.6470   63.9990 O   0  0  0  0  0  0  0  0  0  0  0  0
  -13.4790   13.2150   64.2760 H   0  0  0  0  0  0  0  0  0  0  0  0
  -11.5590   16.4510   63.7900 O   0  0  0  0  0  0  0  0  0  0  0  0
  -10.8110   16.7570   63.2140 H   0  0  0  0  0  0  0  0  0  0  0  0
   -6.7074   20.4278   69.9439 H   0  0  0  0  0  0  0  0  0  0  0  0
   -5.3975   19.9736   68.8072 H   0  0  0  0  0  0  0  0  0  0  0  0
   -9.0276   19.4879   69.4433 H   0  0  0  0  0  0  0  0  0  0  0  0
  -10.4358   18.3874   67.7747 H   0  0  0  0  0  0  0  0  0  0  0  0
   -6.9606   16.9689   65.8654 H   0  0  0  0  0  0  0  0  0  0  0  0
   -5.5963   18.1687   67.3986 H   0  0  0  0  0  0  0  0  0  0  0  0
  -11.2937   16.4154   66.5014 H   0  0  0  0  0  0  0  0  0  0  0  0
  -10.0020   13.0130   66.6443 H   0  0  0  0  0  0  0  0  0  0  0  0
  -12.6577   14.0753   67.0581 H   0  0  0  0  0  0  0  0  0  0  0  0
  -11.1287   14.6533   68.9287 H   0  0  0  0  0  0  0  0  0  0  0  0
   -9.5873   13.8306   68.9414 H   0  0  0  0  0  0  0  0  0  0  0  0
  -11.0695   12.9079   68.8729 H   0  0  0  0  0  0  0  0  0  0  0  0
  -13.0587   15.1046   65.3285 H   0  0  0  0  0  0  0  0  0  0  0  0
  -10.3593   14.8794   64.0680 H   0  0  0  0  0  0  0  0  0  0  0  0
  2  3  1  0  0  0  0
  2 24  1  0  0  0  0
  2 25  1  0  0  0  0
  3  1  3  0  0  0  0
  4  5  1  0  0  0  0
  4  2  1  0  0  0  0
  5 26  1  0  0  0  0
  6  5  2  0  0  0  0
  6 27  1  0  0  0  0
  7  6  1  0  0  0  0
  8  7  2  0  0  0  0
  8  9  1  0  0  0  0
  8 28  1  0  0  0  0
  9  4  2  0  0  0  0
  9 29  1  0  0  0  0
 10 11  1  0  0  0  0
 10  7  1  0  0  0  0
 11 12  1  0  0  0  0
 11 30  1  1  0  0  0
 12 13  1  0  0  0  0
 13 15  1  0  0  0  0
 13 31  1  6  0  0  0
 14 13  1  0  0  0  0
 14 32  1  1  0  0  0
 15 33  1  0  0  0  0
 15 34  1  0  0  0  0
 15 35  1  0  0  0  0
 16 14  1  0  0  0  0
 16 36  1  1  0  0  0
 17 16  1  0  0  0  0
 17 11  1  0  0  0  0
 17 37  1  6  0  0  0
 18 14  1  0  0  0  0
 19 18  1  0  0  0  0
 20 21  1  0  0  0  0
 20 16  1  0  0  0  0
 22 17  1  0  0  0  0
 23 22  1  0  0  0  0
M  END
